Circuit: * C:\Users\drobi\Desktop\fs\Lab1\Part1\testcontroller.asc

Direct Newton iteration for .op point succeeded.

Date: Sun Mar 24 19:50:29 2024
Total elapsed time: 196.453 seconds.

tnom = 27
temp = 27
method = modified trap
totiter = 207222
traniter = 207199
tranpoints = 100596
accept = 100487
rejected = 109
matrix size = 1416
fillins = 62
solver = Normal
Thread vector: 1128.3/653.3[4] 320.7/70.2[4] 88.2/44.1[4] 28.0/18.3[4]  2592/500
Matrix Compiler1: 210.37 KB object code size  275.4/138.7/[81.4]
Matrix Compiler2: 172.77 KB object code size  132.8/108.8/[30.8]

