Circuit: * C:\Users\drobi\Desktop\fs\Lab1\Part1\testingor.asc

Direct Newton iteration for .op point succeeded.

Date: Mon Mar 11 19:04:37 2024
Total elapsed time: 10.107 seconds.

tnom = 27
temp = 27
method = modified trap
totiter = 200292
traniter = 200269
tranpoints = 100111
accept = 100100
rejected = 11
matrix size = 42
fillins = 0
solver = Normal
Matrix Compiler1: 5.15 KB object code size  2.6/1.5/[0.7]
Matrix Compiler2: 4.73 KB object code size  1.1/1.6/[0.5]

