Circuit: * C:\Users\drobi\Desktop\fs\Lab1\Part1\testingand.asc

Direct Newton iteration for .op point succeeded.

Date: Mon Feb 26 19:04:32 2024
Total elapsed time: 13.265 seconds.

tnom = 27
temp = 27
method = modified trap
totiter = 200348
traniter = 200325
tranpoints = 100111
accept = 100100
rejected = 11
matrix size = 60
fillins = 0
solver = Normal
Matrix Compiler1: 7.35 KB object code size  3.6/2.2/[1.1]
Matrix Compiler2: 6.92 KB object code size  1.6/2.2/[0.9]

