Circuit: * C:\Users\drobi\Desktop\fs\Lab1\Part1\testingnot.asc

Direct Newton iteration for .op point succeeded.

Date: Mon Mar 11 19:01:26 2024
Total elapsed time: 5.579 seconds.

tnom = 27
temp = 27
method = modified trap
totiter = 200224
traniter = 200218
tranpoints = 100107
accept = 100097
rejected = 10
matrix size = 22
fillins = 0
solver = Normal
Matrix Compiler1: 2.16 KB object code size  0.8/0.4/[0.3]
Matrix Compiler2: 2.39 KB object code size  0.3/0.5/[0.3]

