Circuit: * C:\Users\drobi\Desktop\fs\Lab1\Part1\testingnor.asc

Direct Newton iteration for .op point succeeded.

Date: Sun Mar 24 16:17:43 2024
Total elapsed time: 6.137 seconds.

tnom = 27
temp = 27
method = modified trap
totiter = 200252
traniter = 200246
tranpoints = 100111
accept = 100100
rejected = 11
matrix size = 24
fillins = 0
solver = Normal
Matrix Compiler1: 2.23 KB object code size  1.0/0.5/[0.3]
Matrix Compiler2: 2.55 KB object code size  4.3/0.5/[0.4]

