Circuit: * C:\Users\drobi\Desktop\fs\Lab1\Part1\testingtripleand.asc

Direct Newton iteration for .op point succeeded.

Date: Mon Feb 26 19:31:26 2024
Total elapsed time: 18.299 seconds.

tnom = 27
temp = 27
method = modified trap
totiter = 200461
traniter = 200438
tranpoints = 100115
accept = 100103
rejected = 12
matrix size = 116
fillins = 4
solver = Normal
Thread vector: 175.9/81.1[2] 21.5/9.2[2] 4.7/2.6[2] 1.3/2.3[1]  2592/500
Matrix Compiler1: 15.65 KB object code size  7.0/5.4/[3.4]
Matrix Compiler2: 13.70 KB object code size  4.0/6.6/[1.3]

