Circuit: * C:\Users\drobi\Desktop\fs\Lab1\Part1\testing.asc

Direct Newton iteration for .op point succeeded.

Date: Mon Feb 26 17:38:28 2024
Total elapsed time: 5.765 seconds.

tnom = 27
temp = 27
method = modified trap
totiter = 200252
traniter = 200246
tranpoints = 100111
accept = 100100
rejected = 11
matrix size = 24
fillins = 0
solver = Normal
Matrix Compiler1: 2.23 KB object code size  1.0/0.6/[0.3]
Matrix Compiler2: 2.55 KB object code size  0.4/0.7/[0.3]

